/*--------------------------------*- C++ -*----------------------------------*\
  =========                 |
  \\      /  F ield         | OpenFOAM: The Open Source CFD Toolbox
   \\    /   O peration     | Website:  https://openfoam.org
    \\  /    A nd           | Version:  7
     \\/     M anipulation  |
\*---------------------------------------------------------------------------*/
FoamFile
{
    version     2.0;
    format      ascii;
    class       volScalarField;
    location    "0/water";
    object      p_rgh;
}
// * * * * * * * * * * * * * * * * * * * * * * * * * * * * * * * * * * * * * //

dimensions      [ 1 -1 -2 0 0 0 0 ];

internalField   uniform 100000;

boundaryField
{
    front
    {
        type            zeroGradient;
        value           uniform 100000;
    }
    back
    {
        type            fixedValue;
        value           uniform 100000;
    }
    left
    {
        type            fixedFluxPressure;
        value           uniform 100000;
    }
    right
    {
        type            fixedFluxPressure;
        value           uniform 100000;
    }
    water_to_heater
    {
        type            fixedFluxPressure;
        value           uniform 100000;
    }
}


// ************************************************************************* //
