/*--------------------------------*- C++ -*----------------------------------*\
| =========                 |                                                 |
| \\      /  F ield         | OpenFOAM: The Open Source CFD Toolbox           |
|  \\    /   O peration     | Version:  v1912                                 |
|   \\  /    A nd           | Website:  www.openfoam.com                      |
|    \\/     M anipulation  |                                                 |
\*---------------------------------------------------------------------------*/
FoamFile
{
    version     2.0;
    format      ascii;
    class       volScalarField;
    location    "0/air";
    object      T;
}
// * * * * * * * * * * * * * * * * * * * * * * * * * * * * * * * * * * * * * //

dimensions      [ 0 0 0 1 0 0 0 ];

internalField   uniform 300;

boundaryField
{
    maxY
    {
        type            zeroGradient;
        value           uniform 300;
    }
    minX
    {
        type            zeroGradient;
        value           uniform 300;
    }
    maxX
    {
        type            zeroGradient;
        value           uniform 300;
    }
    minY
    {
        type            zeroGradient;
        value           uniform 300;
    }
    minZ
    {
        type            zeroGradient;
        value           uniform 300;
    }
    maxZ
    {
        type            zeroGradient;
        value           uniform 300;
    }
    air_to_sphere
    {
        type            compressible::turbulentTemperatureCoupledBaffleMixed;
        value           uniform 300;
        Tnbr            T;
        kappaMethod     fluidThermo;
    }
}


// ************************************************************************* //
