/*--------------------------------*- C++ -*----------------------------------*\
  =========                 |
  \\      /  F ield         | OpenFOAM: The Open Source CFD Toolbox
   \\    /   O peration     | Website:  https://openfoam.org
    \\  /    A nd           | Version:  7
     \\/     M anipulation  |
\*---------------------------------------------------------------------------*/
FoamFile
{
    version     2.0;
    format      ascii;
    class       volScalarField;
    object      T;
}
// * * * * * * * * * * * * * * * * * * * * * * * * * * * * * * * * * * * * * //

dimensions      [0 0 0 1 0 0 0];

internalField   uniform 297;

boundaryField
{
    wall-4
    {
       type            fixedValue;
	value		uniform 297;
    }

    velocity-inlet-5
    {
        type            fixedValue;
	value		uniform 297;
    }

    velocity-inlet-6
    {
        type            fixedValue;
	value		uniform 350;
    }

    pressure-outlet-7
    {
        type     zeroGradient;
    }

    wall-8
    {
       type            fixedValue;
       value		uniform 297;

    frontAndBackPlanes
    {
        type            empty;
    }
}

// ************************************************************************* //
