/*--------------------------------*- C++ -*----------------------------------*\
  =========                 |
  \\      /  F ield         | OpenFOAM: The Open Source CFD Toolbox
   \\    /   O peration     | Website:  https://openfoam.org
    \\  /    A nd           | Version:  7
     \\/     M anipulation  |
\*---------------------------------------------------------------------------*/
FoamFile
{
    version     2.0;
    format      ascii;
    class       volScalarField;
    location    "0/heater";
    object      T;
}
// * * * * * * * * * * * * * * * * * * * * * * * * * * * * * * * * * * * * * //

dimensions      [ 0 0 0 1 0 0 0 ];

internalField   uniform 300;

boundaryField
{
    top
    {
        type            fixedValue;
        value           uniform 300;
        inletValue      uniform 300;
    }
    bottom
    {
        type            fixedValue;
        value           uniform 300;
    }
    front
    {
        type            zeroGradient;
        value           uniform 300;
    }
    back
    {
        type            zeroGradient;
        value           uniform 300;
    }
    left
    {
        type            zeroGradient;
        value           uniform 300;
    }
    right
    {
        type            zeroGradient;
        value           uniform 300;
    }
    heater_to_water
    {
        type            compressible::turbulentTemperatureCoupledBaffleMixed;
        value           uniform 300;
        Tnbr            T;
        kappaMethod     solidThermo;
    }
}


// ************************************************************************* //
