/*--------------------------------*- C++ -*----------------------------------*\
| =========                 |                                                 |
| \\      /  F ield         | OpenFOAM: The Open Source CFD Toolbox           |
|  \\    /   O peration     | Version:  dev                                   |
|   \\  /    A nd           | Web:      www.OpenFOAM.org                      |
|    \\/     M anipulation  |                                                 |
\*---------------------------------------------------------------------------*/
FoamFile
{
    version     2.0;
    format      ascii;
    class       dictionary;
    object      changeDictionaryDict;
}
// * * * * * * * * * * * * * * * * * * * * * * * * * * * * * * * * * * * * * //

U
{
    internalField   uniform (0 0 0);

    boundaryField
    {
        front
        {
            type            fixedValue;
            value           uniform (0.01 0 0);
        }

        back
        {
            type            zeroGradient;
           
        }

        ".*"
        {
            type            noSlip;
        }
    }
}

T
{
    internalField   uniform 300;

    boundaryField
    {
        front
        {
            type            fixedValue;
            value           uniform 300;
        }

        back
        {
            type            inletOutlet;
            inletValue      uniform 300;
        }

        ".*"
        {
            type            zeroGradient;
            value           uniform 300;
        }

        "water_to.*"
        {
            type            compressible::turbulentTemperatureCoupledBaffleMixed;
            Tnbr            T;
            kappaMethod     fluidThermo;
            value           uniform 300;
        }
    }
}

/*
epsilon
{
    internalField   uniform 0.01;

    boundaryField
    {
        front
        {
            type            fixedValue;
            value           uniform 0.01;
        }

        back
        {
            type            inletOutlet;
            inletValue      uniform 0.01;
        }

        ".*"
        {
            type            epsilonWallFunction;
            value           uniform 0.01;
        }
    }
}

k
{
    internalField   uniform 0.1;

    boundaryField
    {
        front
        {
            type            inletOutlet;
            inletValue      uniform 0.1;
        }

        back
        {
            type            zeroGradient;
            value           uniform 0.1;
        }

        ".*"
        {
            type            kqRWallFunction;
            value           uniform 0.1;
        }
    }
}
*/

p_rgh
{
    internalField   uniform 1e5;

    boundaryField
    {
        front
        {
            type            zeroGradient;
            
        }

        back
        {
            type            fixedValue;
            value           uniform 1e5;
        }

        ".*"
        {
            type            fixedFluxPressure;
            value           uniform 1e5;
        }
    }
}

p
{
    internalField   uniform 0;

    boundaryField

    {

      front
        {
            type            zeroGradient;
            
        }


        ".*"
        {
            type            calculated;
            value           uniform 0;
        }
    }
}

// ************************************************************************* //
