/*--------------------------------*- C++ -*----------------------------------*\
| =========                 |                                                 |
| \\      /  F ield         | OpenFOAM: The Open Source CFD Toolbox           |
|  \\    /   O peration     | Version:  v1912                                 |
|   \\  /    A nd           | Website:  www.openfoam.com                      |
|    \\/     M anipulation  |                                                 |
\*---------------------------------------------------------------------------*/
FoamFile
{
    version     2.0;
    format      ascii;
    class       extendedFeatureEdgeMesh;
    location    "constant/extendedFeatureEdgeMesh";
    object      sphere_OpenFoam.extendedFeatureEdgeMesh;
}
// * * * * * * * * * * * * * * * * * * * * * * * * * * * * * * * * * * * * * //

// points
4((0.00188 -4.60467e-19 -0.0148817) (9.18485e-19 -2.24964e-34 -0.015) (9.18485e-19 -2.24964e-34 0.015) (0.00188 -4.60467e-19 0.0148817))
// edges
2((0 1) (2 3))
// concaveStart mixedStart nonFeatureStart
0 0 0
// internalStart flatStart openStart multipleStart
0 2 2 2
// normals
4((0.0592506 -0.331007 -0.941766) (0.0592506 0.331007 -0.941766) (0.0592506 -0.331007 0.941766) (0.0592506 0.331007 0.941766))
// normal volume types

4
(
0
0
0
0
)

// normalDirections

2
(
2(1 -1)
2(1 -1)
)

// edgeNormals

2
(
2(0 1)
2(2 3)
)

// featurePointNormals
0()
// featurePointEdges
0()
// regionEdges
0()


// ************************************************************************* //
