/*--------------------------------*- C++ -*----------------------------------*\
  =========                 |
  \\      /  F ield         | OpenFOAM: The Open Source CFD Toolbox
   \\    /   O peration     | Website:  https://openfoam.org
    \\  /    A nd           | Version:  7
     \\/     M anipulation  |
\*---------------------------------------------------------------------------*/
FoamFile
{
    version     2.0;
    format      ascii;
    class       volScalarField;
    location    "0/air";
    object      cellToRegion;
}
// * * * * * * * * * * * * * * * * * * * * * * * * * * * * * * * * * * * * * //

dimensions      [0 0 0 0 0 0 0];

internalField   uniform 3;

boundaryField
{
    leftwall
    {
        type            zeroGradient;
    }
    rightwall
    {
        type            zeroGradient;
    }
    frontface
    {
        type            zeroGradient;
    }
    backface
    {
        type            zeroGradient;
    }
    air_to_heater
    {
        type            calculated;
        value           uniform 0;
    }
    air_to_topplate
    {
        type            calculated;
        value           uniform 0;
    }
    air_to_bottomplate
    {
        type            calculated;
        value           uniform 0;
    }
}


// ************************************************************************* //
