/*--------------------------------*- C++ -*----------------------------------*\
  =========                 |
  \\      /  F ield         | OpenFOAM: The Open Source CFD Toolbox
   \\    /   O peration     | Website:  https://openfoam.org
    \\  /    A nd           | Version:  7
     \\/     M anipulation  |
\*---------------------------------------------------------------------------*/
FoamFile
{
    version     2.0;
    format      ascii;
    class       volScalarField;
    location    "0/topplate";
    object      T;
}
// * * * * * * * * * * * * * * * * * * * * * * * * * * * * * * * * * * * * * //

dimensions      [0 0 0 1 0 0 0];

internalField   uniform 300;

boundaryField
{
    topwall
    {
        type            calculated;
        value           uniform 300;
    }
    leftwall
    {
        type            calculated;
        value           uniform 300;
    }
    rightwall
    {
        type            calculated;
        value           uniform 300;
    }
    frontface
    {
        type            calculated;
        value           uniform 300;
    }
    backface
    {
        type            calculated;
        value           uniform 300;
    }
    topplate_to_air
    {
        type            calculated;
        value           uniform 0;
    }
}


// ************************************************************************* //
