/*--------------------------------*- C++ -*----------------------------------*\
| =========                 |                                                 |
| \\      /  F ield         | OpenFOAM: The Open Source CFD Toolbox           |
|  \\    /   O peration     | Version:  v1912                                 |
|   \\  /    A nd           | Website:  www.openfoam.com                      |
|    \\/     M anipulation  |                                                 |
\*---------------------------------------------------------------------------*/
FoamFile
{
    version     2.0;
    format      ascii;
    class       extendedFeatureEdgeMesh;
    location    "constant/extendedFeatureEdgeMesh";
    object      sphere.extendedFeatureEdgeMesh;
}
// * * * * * * * * * * * * * * * * * * * * * * * * * * * * * * * * * * * * * //

// points
4((0.00217084 -0.00125333 -0.0198423) (1.06058e-18 -6.12323e-19 -0.02) (1.06058e-18 -6.12323e-19 0.02) (0.00217084 -0.00125333 0.0198423))
// edges
2((0 1) (2 3))
// concaveStart mixedStart nonFeatureStart
0 0 0
// internalStart flatStart openStart multipleStart
0 2 2 2
// normals
4((-0.114188 -0.316281 -0.941768) (0.216814 0.25703 -0.941768) (-0.114188 -0.316281 0.941768) (0.216814 0.25703 0.941768))
// normal volume types

4
(
0
0
0
0
)

// normalDirections

2
(
2(1 -1)
2(1 -1)
)

// edgeNormals

2
(
2(0 1)
2(2 3)
)

// featurePointNormals
0()
// featurePointEdges
0()
// regionEdges
0()


// ************************************************************************* //
